12 

C         -1.51355          2.56557         -0.00639
C         -1.57653          1.17222         -0.00009
C         -2.45268         -1.03843         -0.04990
H          0.71333          0.52439          0.18151
H         -0.47920          3.10175          0.06906
H         -2.49534          3.19217         -0.08709
C         -2.84469          0.30412         -0.09077
H         -0.29597         -2.09375          0.12470
C         -0.90336         -1.10792          0.07006
C         -0.39182          0.19411          0.09903
H         -3.91556          0.73200         -0.17674
H         -3.14655         -1.96590         -0.09586
